Version 4
SHEET 1 1960 1348
WIRE -288 288 -416 288
WIRE -416 320 -416 288
WIRE -416 432 -416 400
WIRE 96 464 16 464
WIRE 192 464 96 464
WIRE 336 464 272 464
WIRE 544 464 416 464
WIRE 560 464 544 464
WIRE -320 480 -816 480
WIRE -288 480 -288 288
WIRE -80 496 -256 496
WIRE -368 512 -416 512
WIRE -320 512 -368 512
WIRE 16 544 16 464
WIRE 560 544 560 464
WIRE -288 560 -288 512
WIRE -80 560 -80 496
WIRE -32 560 -80 560
WIRE -416 576 -416 512
WIRE -32 608 -80 608
WIRE 16 720 16 624
WIRE 560 720 560 624
WIRE 560 720 16 720
WIRE -416 768 -416 656
WIRE -288 768 -288 640
WIRE -80 768 -80 608
WIRE 16 768 16 720
WIRE -16 912 -96 912
WIRE 128 912 48 912
WIRE 272 912 208 912
WIRE 272 1040 272 912
WIRE 272 1040 96 1040
WIRE 320 1040 272 1040
WIRE 560 1040 400 1040
WIRE 608 1040 560 1040
WIRE -816 1056 -816 480
WIRE -288 1056 -816 1056
WIRE -96 1056 -96 912
WIRE -96 1056 -288 1056
WIRE 32 1056 -96 1056
WIRE 176 1072 96 1072
WIRE 208 1072 176 1072
WIRE 608 1072 608 1040
WIRE 208 1184 208 1072
WIRE 608 1216 608 1152
WIRE 208 1312 208 1264
FLAG -416 768 0
FLAG -288 768 0
FLAG -416 432 0
FLAG -368 512 tri
FLAG -80 768 0
FLAG 16 768 0
FLAG 96 464 spwm
FLAG 544 464 grid
FLAG 608 1216 0
FLAG 208 1312 0
FLAG -288 1056 reg
FLAG 176 1072 ref
FLAG 560 1040 sens
SYMBOL MyComparator -288 496 R0
WINDOW 38 14 22 Left 2
SYMATTR InstName U2
SYMBOL voltage -416 560 R0
WINDOW 3 -313 253 Left 2
WINDOW 123 0 0 Left 0
WINDOW 39 0 0 Left 0
SYMATTR Value PULSE({-vtri} {vtri} 0 {1/2/fs} {1/2/fs} {0} {1/fs})
SYMATTR InstName Vtri1
SYMBOL voltage -416 304 R0
WINDOW 123 0 0 Left 0
WINDOW 39 0 0 Left 0
SYMATTR InstName V1
SYMATTR Value 1
SYMBOL voltage -288 656 R180
WINDOW 0 -72 73 Left 2
WINDOW 3 -52 34 Left 2
WINDOW 123 0 0 Left 0
WINDOW 39 0 0 Left 0
SYMATTR InstName V3
SYMATTR Value 1
SYMBOL e 16 528 R0
SYMATTR InstName E1
SYMATTR Value 400
SYMBOL ind 176 480 R270
WINDOW 0 32 56 VTop 2
WINDOW 3 5 56 VBottom 2
SYMATTR InstName L1
SYMATTR Value 10m
SYMBOL voltage 560 528 R0
WINDOW 123 0 0 Left 0
WINDOW 39 0 0 Left 0
SYMATTR InstName Vg
SYMATTR Value SINE(0 325.27 50 0)
SYMBOL MyOpamp 64 1056 R180
WINDOW 39 83 -72 Center 2
WINDOW 40 68 -106 Center 2
WINDOW 0 6 -33 Left 2
WINDOW 38 14 36 Left 2
SYMATTR InstName U1
SYMBOL cap 48 896 R90
WINDOW 0 0 32 VBottom 2
WINDOW 3 32 32 VTop 2
SYMATTR InstName C2
SYMATTR Value 1µ
SYMBOL res 224 896 R90
WINDOW 0 0 56 VBottom 2
WINDOW 3 32 56 VTop 2
SYMATTR InstName R2
SYMATTR Value 100k
SYMBOL res 416 1024 R90
WINDOW 0 0 56 VBottom 2
WINDOW 3 32 56 VTop 2
SYMATTR InstName R1
SYMATTR Value 1k
SYMBOL Misc\\Epoly 608 1056 R0
WINDOW 0 66 31 Left 2
WINDOW 3 48 63 Left 2
SYMATTR InstName E2
SYMATTR Value value = {i(Vg)}
SYMBOL voltage 208 1168 R0
WINDOW 0 50 53 Left 2
WINDOW 3 39 85 Left 2
WINDOW 123 0 0 Left 0
WINDOW 39 0 0 Left 0
SYMATTR InstName V2
SYMATTR Value SINE(0 {1*sqrt(2)} 50 0)
SYMBOL res 432 448 R90
WINDOW 0 0 56 VBottom 2
WINDOW 3 32 56 VTop 2
SYMATTR InstName R3
SYMATTR Value 0.1
TEXT -112 312 Left 2 !.tran 0 40m 0 0.1u uic\n.options reltol=0.001
TEXT -1112 296 Left 2 !.param vtri 5                     ; triangular waveform\n.param fs 100k                ; switching frequency
TEXT 328 320 Left 2 !.four 50 10 v(spwm)
TEXT 624 1048 Left 2 ;Grid current sensor
TEXT 232 1184 Left 2 ;Grid current reference
