Version 4
SHEET 1 1960 1348
WIRE -288 288 -416 288
WIRE -416 320 -416 288
WIRE -416 432 -416 400
WIRE 96 464 16 464
WIRE 240 464 96 464
WIRE 528 464 320 464
WIRE 560 464 528 464
WIRE -640 480 -800 480
WIRE -320 480 -640 480
WIRE -288 480 -288 288
WIRE -80 496 -256 496
WIRE -368 512 -416 512
WIRE -320 512 -368 512
WIRE 16 544 16 464
WIRE 560 544 560 464
WIRE -288 560 -288 512
WIRE -80 560 -80 496
WIRE -32 560 -80 560
WIRE -800 576 -800 480
WIRE -416 576 -416 512
WIRE -32 608 -80 608
WIRE 16 720 16 624
WIRE 560 720 560 624
WIRE 560 720 16 720
WIRE -800 768 -800 656
WIRE -416 768 -416 656
WIRE -288 768 -288 640
WIRE -80 768 -80 608
WIRE 16 768 16 720
FLAG -416 768 0
FLAG -800 768 0
FLAG -288 768 0
FLAG -416 432 0
FLAG -640 480 sin
FLAG -368 512 tri
FLAG -80 768 0
FLAG 16 768 0
FLAG 96 464 spwm
FLAG 528 464 grid
SYMBOL MyComparator -288 496 R0
WINDOW 38 14 22 Left 2
SYMATTR InstName U2
SYMBOL voltage -416 560 R0
WINDOW 3 -313 253 Left 2
WINDOW 123 0 0 Left 0
WINDOW 39 0 0 Left 0
SYMATTR Value PULSE({-vtri} {vtri} 0 {1/2/fs} {1/2/fs} {0} {1/fs})
SYMATTR InstName Vtri1
SYMBOL voltage -800 560 R0
WINDOW 123 0 0 Left 0
WINDOW 39 0 0 Left 0
WINDOW 3 17 104 Left 2
SYMATTR Value SINE(0 {ma*vtri} 50 {tphi})
SYMATTR InstName V5
SYMBOL voltage -416 304 R0
WINDOW 123 0 0 Left 0
WINDOW 39 0 0 Left 0
SYMATTR InstName V1
SYMATTR Value 1
SYMBOL voltage -288 656 R180
WINDOW 0 -72 73 Left 2
WINDOW 3 -52 34 Left 2
WINDOW 123 0 0 Left 0
WINDOW 39 0 0 Left 0
SYMATTR InstName V3
SYMATTR Value 1
SYMBOL e 16 528 R0
SYMATTR InstName E1
SYMATTR Value 400
SYMBOL ind 224 480 R270
WINDOW 0 32 56 VTop 2
WINDOW 3 5 56 VBottom 2
SYMATTR InstName L1
SYMATTR Value 10m
SYMBOL voltage 560 528 R0
WINDOW 123 0 0 Left 0
WINDOW 39 0 0 Left 0
SYMATTR InstName V2
SYMATTR Value SINE(0 325.27 50 0)
TEXT -104 112 Left 2 !.tran 0 100m 60m 0.01u uic\n.options reltol=0.001
TEXT -872 112 Left 2 !.param vtri 5                     ; triangular waveform\n.param ma=0.8132        ; amplitude modulation index\n.param tphi -43.5u         ; time delay\n.param fs 100k                ; switching frequency
TEXT -104 264 Left 2 !.four 50 15 v(spwm)
